*Heading
** Job name: pull_plate Model name: Model-1
** Generated by: Abaqus/CAE Student Edition 2019
*Preprint, echo=NO, model=NO, history=NO, contact=NO
**
** PARTS
**
*Part, name=plate
*Node
      1,           0.,           5.
      2,           0.,          20.
      3,  0.975451589,   4.90392637
      4,    2.7778511,   4.15734816
      5,   3.53553391,   3.53553391
      6,   4.15734816,    2.7778511
      7,   4.90392637,  0.975451589
      8,           5.,           0.
      9,          20.,           0.
     10,          20.,          20.
     11,           0.,         8.75
     12,           0.,         12.5
     13,           0.,        16.25
     14,   1.91341722,   4.61939764
     15,   4.61939764,   1.91341722
     16,   17.8756886,           0.
     17,   15.9219751,           0.
     18,   14.1251621,           0.
     19,   12.4726467,           0.
     20,   10.9528408,           0.
** ... 70 like lines cut
*Element, type=CPS4R
 1, 36, 37, 14,  4
 2,  4,  5, 33, 36
 3, 57, 47, 46, 56
 4, 34, 33,  5,  6
 5,  6, 15, 35, 34
 6,  8, 24, 44,  7
 7, 85, 76, 12, 11
 8, 37, 59,  3, 14
 9, 45, 36, 33, 47
10, 47, 33, 34, 46
11,  9, 28, 43, 16
12, 43, 42, 17, 16
13, 41, 40, 19, 18
14, 40, 39, 20, 19
15, 39, 38, 21, 20
16, 39, 40, 53, 52
17, 46, 34, 35, 48
18, 22, 21, 38, 50
19, 44, 35, 15,  7
20, 25, 10, 32, 80
** ... 53 like lines cut
*Node
     91,           0.,          20.,           0.
*Nset, nset=plate-RefPt_, internal
91, 
*Nset, nset=RP
 91,
*Nset, nset=y_sym
  8,  9, 16, 17, 18, 19, 20, 21, 22, 23, 24
*Elset, elset=y_sym
  6, 11, 12, 13, 14, 15, 18, 31, 34, 35
*Nset, nset=x_sym
  1,  2, 11, 12, 13
*Elset, elset=x_sym
  7, 22, 29, 67
*Nset, nset=top
  2, 10, 29, 30, 31, 32
*Elset, elset=top
 20, 22, 59, 64, 70
*Nset, nset=all, generate
  1,  90,   1
*Elset, elset=all, generate
  1,  73,   1
** Section: steel
*Solid Section, elset=all, material=steel
,
*End Part
**  
**
** ASSEMBLY
**
*Assembly, name=Assembly
**  
*Instance, name=plate-1, part=plate
*End Instance
**  
*Surface, type=NODE, name=plate-1_top_CNS_, internal
plate-1.top, 1.
** Constraint: couple_top_uy
*Coupling, constraint name=couple_top_uy, ref node=plate-1.RP, surface=plate-1_top_CNS_
*Kinematic
2, 2
*End Assembly
** 
** MATERIALS
** 
*Material, name=steel
*Elastic
210000., 0.3
*Plastic
  500.,0.
21500.,1.
** 
** BOUNDARY CONDITIONS
** 
** Name: x_sym Type: Displacement/Rotation
*Boundary
plate-1.x_sym, 1, 1
** Name: y_sym Type: Displacement/Rotation
*Boundary
plate-1.y_sym, 2, 2
** ----------------------------------------------------------------
** 
** STEP: pull_y
** 
*Step, name=pull_y, nlgeom=YES
*Static
1., 1., 1e-05, 1.
** 
** BOUNDARY CONDITIONS
** 
** Name: pull_y Type: Displacement/Rotation
*Boundary
plate-1.RP, 1, 1
plate-1.RP, 2, 2, 1.
plate-1.RP, 6, 6
** 
** OUTPUT REQUESTS
** 
*Restart, write, frequency=0
** 
** FIELD OUTPUT: F-Output-1
** 
*Output, field, variable=PRESELECT
** 
** HISTORY OUTPUT: H-Output-1
** 
*Output, history, variable=PRESELECT
*End Step
